src/examples/case14_twoarea/two_area_1pulim/res_branch_2.csv
branch,from_bus,to_bus,X,B,G,Bfr,Bto,p_from,p_to,q_from,q_to,p_loss,q_loss,s_from,s_to,rate_a,ang_deg,angmin,angmax
7,4,5,0.035091666666666674,-24.893929112009626,9.470452253013397,0.0,0.0,-0.3403367367732994,0.3418410783489974,-0.05365014082968359,0.05760443694408756,0.0015043415756980094,0.0039542961144039684,0.3445394491325238,0.3466606323228104,1.0,-0.606885372902907,-60.0001403060998,60.0001403060998
4,2,4,0.14693333333333336,-5.885295774936327,2.3275490300468458,0.014166666666666668,0.014166666666666668,0.4131970601329418,-0.4039481905101541,-0.05901716995917801,0.052113329111532214,0.009248869622787648,-0.006903840847645795,0.4173905088193746,0.40729588714780146,1.0,3.392151446111452,-60.0001403060998,60.0001403060998
2,1,5,0.18586666666666668,-4.960987561041088,1.4421206487968972,0.0205,0.0205,0.551853230882444,-0.5371883590171118,-0.002380612443444243,0.007932518059123313,0.014664871865332163,0.0055519056156790704,0.551858365661877,0.5372469245200532,1.0,5.317934715446829,-60.0001403060998,60.0001403060998
3,2,3,0.164975,-5.606663082452164,1.5969516487008768,0.01825,0.01825,0.4146197544539421,-0.4071649153147948,-0.006752890132824838,-0.005960159595970619,0.007454839139147296,-0.012713049728795457,0.41467474279077243,0.40720853596862805,1.0,3.6487802556309297,-60.0001403060998,60.0001403060998
5,2,5,0.14490000000000003,-5.977892318521822,2.3494890789497425,0.014416666666666668,0.014416666666666668,0.3368888233007797,-0.33073744020639356,-0.07617599777111127,0.06081512610592981,0.00615138309438612,-0.015360871665181457,0.34539377802937954,0.33628222361218846,1.0,2.7852660732085455,-60.0001403060998,60.0001403060998
6,3,4,0.142525,-5.746114879729376,2.701611353030454,0.005333333333333334,0.005333333333333334,-0.03694103567453419,0.037032978058815856,-0.013983538840031989,0.002981687451264456,9.194238428166662e-5,-0.011001851388767532,0.03949910727089779,0.03715281851975385,1.0,-0.2566288095194773,-60.0001403060998,60.0001403060998
1,1,2,0.04930833333333334,-17.566853542948998,6.904423626750412,0.022000000000000002,0.022000000000000002,0.9999971713577074,-0.982736471256893,0.002380602591124668,-0.007046269474396333,0.017260700100814375,-0.004665666883271665,1.0000000049960565,0.9827617319838802,1.0,2.532668642238283,-60.0001403060998,60.0001403060998
